/*--------------------------------*- C++ -*----------------------------------*\
  =========                 |
  \\      /  F ield         | OpenFOAM: The Open Source CFD Toolbox
   \\    /   O peration     | Website:  https://openfoam.org
    \\  /    A nd           | Version:  10
     \\/     M anipulation  |
\*---------------------------------------------------------------------------*/
FoamFile
{
    format      ascii;
    class       dictionary;
    location    "system";
    object      fvSchemes;
}
// * * * * * * * * * * * * * * * * * * * * * * * * * * * * * * * * * * * * * //

ddtSchemes
{
    default         steadyState;
//     default         Euler;
}

gradSchemes
{
    default         Gauss linear;
    //grad(p) cellLimited Gauss linear 1;
//     limited         cellLimited Gauss linear 1;

// //     from windAroundBuildings
//     grad(U)         $limited;
//     grad(k)         $limited;
//     grad(epsilon)     $limited;
}

divSchemes
{
    default         none;
    div(phi,U)      bounded Gauss linearUpwind grad(U);

    //     from windAroundBuildings
//     div(phi,U)      bounded Gauss linearUpwind limited;

//     div(phi,U)      Gauss limitedLinearV 1;

    div(phi,k)      bounded Gauss upwind;
    div(phi,epsilon) bounded Gauss upwind;


//     div(phi,omega)  bounded Gauss limitedLinear 1;
//     div(phi,v2)     bounded Gauss limitedLinear 1;
    div((nuEff*dev2(T(grad(U))))) Gauss linear;
    div(nonlinearStress) Gauss linear;
}

laplacianSchemes
{
    default         Gauss linear corrected;
//     default			Gauss linear limited corrected 0.7;
}

interpolationSchemes
{
    default         linear;
}

snGradSchemes
{
    default         corrected;
//     default 		limited corrected 0.7;
}

wallDist
{
    method meshWave;
}


// ************************************************************************* //
