/*--------------------------------*- C++ -*----------------------------------*\
  =========                 |
  \\      /  F ield         | OpenFOAM: The Open Source CFD Toolbox
   \\    /   O peration     | Website:  https://openfoam.org
    \\  /    A nd           | Version:  10
     \\/     M anipulation  |
\*---------------------------------------------------------------------------*/
FoamFile
{
    format      ascii;
    class       dictionary;
    location    "system";
    object      fvSolution;
}
// * * * * * * * * * * * * * * * * * * * * * * * * * * * * * * * * * * * * * //

solvers
{
    p
    {
        solver          GAMG;
//         tolerance       1e-08;
        tolerance       1e-08;
        relTol          0.01;
//         smoother        symGaussSeidel;
//         smoother        DICGaussSeidel;
        smoother        GaussSeidel;

//         solver          PCG;
//         preconditioner  DIC;
//         tolerance       1e-06;
//         relTol          0.01;

//         //     from windAroundBuildings
//           "(U|k|omega|epsilon)"
//     {
//         solver          smoothSolver;
//         smoother        symGaussSeidel;
//         tolerance       1e-6;
//         relTol          0.1;
//     }
    }

    U
    {
        solver          smoothSolver;
        smoother        GaussSeidel;
//         nSweeps         2;
        tolerance       1e-08;
        relTol          0;
    }

    k
    {
        solver          smoothSolver;
        smoother        GaussSeidel;
        nSweeps         2;
        tolerance       1e-08;
        relTol          0;
    }

    epsilon
    {
        solver          smoothSolver;
        smoother        GaussSeidel;
        nSweeps         2;
        tolerance       1e-08;
        relTol          0.0;
    }

//     pFinal
//     {
//         $p;
//         tolerance       1e-06;
//         relTol          0;
//     }

//     pcorr
//     {
//         solver          GAMG;
//         tolerance       1e-06;
//         relTol          0;
//         smoother        GaussSeidel;
//     }
//
//     "(U|k|epsilon|omega|f|v2)"
//     {
//         solver          smoothSolver;
//         smoother        symGaussSeidel;
//         tolerance       1e-08;
//         relTol          0;
//     }

//     "(U|k|epsilon|omega|f|v2)Final"
//     {
//         solver          smoothSolver;
//         smoother        symGaussSeidel;
//         tolerance       1e-08;
//         relTol          0;
//     }

    Phi
    {
        solver          GAMG;
        tolerance       1e-10;
        relTol          0.01;
        smoother        GaussSeidel;
//         solver          PCG;
//         preconditioner  DIC;
//         tolerance       1e-10;
//         relTol          0;
    }
}

// PIMPLE
// {
//     nCorrectors     2;
//     nNonOrthogonalCorrectors 2;
//     pRefCell        0;
//     pRefValue       0;
//
//     residualControl
//     {
//         p               1e-5;
//         U               1e-6;
//         "(k|epsilon|omega|f|v2)" 1e-5;
//     }
// }

SIMPLE
{
    nNonOrthogonalCorrectors 3;
    consistent      yes;
    pRefCell		0;
    pRefValue		0;

    residualControl
    {
        p               1e-3;
        U               1e-4;
        "(k|epsilon|omega|f|v2)" 1e-4;
    }
}

potentialFlow
{
    nNonOrthogonalCorrectors 40;
}

relaxationFactors
{
    equations
    {
        U               0.7/; // 0.9 is more stable but 0.95 more convergent
        ".*"            0.7; // 0.9 is more stable but 0.95 more convergent
    }
    fields
    {
        p              0.3;
    }
}


// ************************************************************************* //
