/*--------------------------------*- C++ -*----------------------------------*\
  =========                 |
  \\      /  F ield         | OpenFOAM: The Open Source CFD Toolbox
   \\    /   O peration     | Website:  https://openfoam.org
    \\  /    A nd           | Version:  10
     \\/     M anipulation  |
\*---------------------------------------------------------------------------*/
FoamFile
{
    format      ascii;
    class       volScalarField;
    location    "0";
    object      nut;
}
// * * * * * * * * * * * * * * * * * * * * * * * * * * * * * * * * * * * * * //

dimensions      [0 2 -1 0 0 0 0];

internalField   uniform 0;

boundaryField
{
    ent
    {
        type            calculated;
        value           uniform 0;
    }
    out
    {
        type            calculated;
        value           uniform 0;
    }
    wall_f
    {
        type        symmetryPlane;
//         type            nutkWallFunction;
//         type            fixedValue;
//         value           uniform 0;
    }
    wall_b
    {
        type            nutkWallFunction;
//         type            fixedValue;
        value           uniform 0;
    }
    defaultFaces
    {
        type            nutkWallFunction;
//         type            fixedValue;
        value           uniform 0;
    }
}


// ************************************************************************* //
