/*--------------------------------*- C++ -*----------------------------------*\
  =========                 |
  \\      /  F ield         | OpenFOAM: The Open Source CFD Toolbox
   \\    /   O peration     | Website:  https://openfoam.org
    \\  /    A nd           | Version:  10
     \\/     M anipulation  |
\*---------------------------------------------------------------------------*/
FoamFile
{
    format      ascii;
    class       volVectorField;
    object      U;
}
// * * * * * * * * * * * * * * * * * * * * * * * * * * * * * * * * * * * * * //

dimensions      [0 1 -1 0 0 0 0];

internalField   uniform (0 0 0);

boundaryField
{
    ent
    {
//         type            	flowRateInletVelocity;
//         profile             turbulentBL;
// //         profile             laminarBL;
//         volumetricFlowRate	table
//         (
//             (0      0)
//             (5000    10e-7)
//         );
//         value       uniform (0 0 0);
    	type            	zeroGradient;
    }

    out
    {
//     	type            	zeroGradient;
        type            	flowRateInletVelocity;
//         profile             turbulentBL;
        profile             turbulentBL;
        volumetricFlowRate	table
        (
            (0      0)
            (2000    1.25e-6)
        );
        value       uniform (0 0 0);

    }
	
	wall_f
	{
		type				 symmetryPlane;
//         type                 noSlip;
	}

    wall_b
	{
		type              noSlip;
	}
    
    defaultFaces
    {
        type            noSlip;
    }

}

// ************************************************************************* //
